Version 4
SHEET 1 2168 1412
WIRE 32 96 -64 96
WIRE 160 96 112 96
WIRE 224 96 160 96
WIRE 336 96 224 96
WIRE 608 96 480 96
WIRE 672 96 608 96
WIRE 896 96 672 96
WIRE 1136 96 1040 96
WIRE -64 144 -64 96
WIRE 160 144 160 96
WIRE 224 144 224 96
WIRE 608 144 608 96
WIRE 672 144 672 96
WIRE 1136 144 1136 96
WIRE -64 272 -64 224
WIRE 160 272 160 208
WIRE 160 272 -64 272
WIRE 224 272 224 224
WIRE 224 272 160 272
WIRE 400 272 224 272
WIRE 608 272 608 208
WIRE 608 272 400 272
WIRE 672 272 672 224
WIRE 672 272 608 272
WIRE 1136 272 1136 224
WIRE 1136 272 672 272
WIRE 400 288 400 272
WIRE 32 352 -64 352
WIRE 160 352 112 352
WIRE 224 352 160 352
WIRE 336 352 224 352
WIRE 608 352 480 352
WIRE 672 352 608 352
WIRE 832 352 672 352
WIRE 848 352 832 352
WIRE 1136 384 1040 384
WIRE 1296 384 1216 384
WIRE 1472 384 1440 384
WIRE 1536 384 1472 384
WIRE 1584 384 1536 384
WIRE 1824 384 1728 384
WIRE 1936 384 1824 384
WIRE 1952 384 1936 384
WIRE -64 400 -64 352
WIRE 160 400 160 352
WIRE 224 400 224 352
WIRE 608 400 608 352
WIRE 672 400 672 352
WIRE 832 400 832 352
WIRE 1040 432 1040 384
WIRE 1472 432 1472 384
WIRE 1536 432 1536 384
WIRE 1936 432 1936 384
WIRE -64 528 -64 480
WIRE 160 528 160 464
WIRE 160 528 -64 528
WIRE 224 528 224 480
WIRE 224 528 160 528
WIRE 400 528 224 528
WIRE 608 528 608 464
WIRE 608 528 400 528
WIRE 672 528 672 480
WIRE 672 528 608 528
WIRE 832 528 832 480
WIRE 832 528 672 528
WIRE 400 544 400 528
WIRE 1040 560 1040 512
WIRE 1472 560 1472 496
WIRE 1472 560 1040 560
WIRE 1504 560 1472 560
WIRE 1536 560 1536 512
WIRE 1536 560 1504 560
WIRE 1936 560 1936 512
WIRE 1936 560 1536 560
WIRE 1504 576 1504 560
WIRE 1136 624 1040 624
WIRE 1296 624 1216 624
WIRE 1472 624 1440 624
WIRE 1536 624 1472 624
WIRE 1584 624 1536 624
WIRE 1936 624 1728 624
WIRE 1952 624 1936 624
WIRE 32 640 -64 640
WIRE 192 640 112 640
WIRE 368 640 336 640
WIRE 432 640 368 640
WIRE 480 640 432 640
WIRE 832 640 624 640
WIRE 848 640 832 640
WIRE 1040 672 1040 624
WIRE 1472 672 1472 624
WIRE 1536 672 1536 624
WIRE 1936 672 1936 624
WIRE -64 688 -64 640
WIRE 368 688 368 640
WIRE 432 688 432 640
WIRE 832 688 832 640
WIRE 1040 800 1040 752
WIRE 1472 800 1472 736
WIRE 1472 800 1040 800
WIRE 1504 800 1472 800
WIRE 1536 800 1536 752
WIRE 1536 800 1504 800
WIRE 1936 800 1936 752
WIRE 1936 800 1536 800
WIRE -64 816 -64 768
WIRE 368 816 368 752
WIRE 368 816 -64 816
WIRE 400 816 368 816
WIRE 432 816 432 768
WIRE 432 816 400 816
WIRE 832 816 832 768
WIRE 832 816 432 816
WIRE 1504 816 1504 800
WIRE 400 832 400 816
WIRE 32 928 -64 928
WIRE 192 928 112 928
WIRE 368 928 336 928
WIRE 432 928 368 928
WIRE 480 928 432 928
WIRE 832 928 624 928
WIRE 848 928 832 928
WIRE 1136 928 1040 928
WIRE 1296 928 1216 928
WIRE 1472 928 1440 928
WIRE 1536 928 1472 928
WIRE 1584 928 1536 928
WIRE 1824 928 1728 928
WIRE 1936 928 1824 928
WIRE 1952 928 1936 928
WIRE -64 976 -64 928
WIRE 368 976 368 928
WIRE 432 976 432 928
WIRE 832 976 832 928
WIRE 1040 976 1040 928
WIRE 1472 976 1472 928
WIRE 1536 976 1536 928
WIRE 1936 976 1936 928
WIRE -64 1104 -64 1056
WIRE 368 1104 368 1040
WIRE 368 1104 -64 1104
WIRE 400 1104 368 1104
WIRE 432 1104 432 1056
WIRE 432 1104 400 1104
WIRE 832 1104 832 1056
WIRE 832 1104 432 1104
WIRE 1040 1104 1040 1056
WIRE 1472 1104 1472 1040
WIRE 1472 1104 1040 1104
WIRE 1504 1104 1472 1104
WIRE 1536 1104 1536 1056
WIRE 1536 1104 1504 1104
WIRE 1936 1104 1936 1056
WIRE 1936 1104 1536 1104
WIRE 400 1120 400 1104
WIRE 1504 1120 1504 1104
WIRE 1136 1152 1040 1152
WIRE 1296 1152 1216 1152
WIRE 1472 1152 1440 1152
WIRE 1536 1152 1472 1152
WIRE 1584 1152 1536 1152
WIRE 1824 1152 1728 1152
WIRE 1936 1152 1824 1152
WIRE 1952 1152 1936 1152
WIRE 1040 1200 1040 1152
WIRE 1472 1200 1472 1152
WIRE 1536 1200 1536 1152
WIRE 1936 1200 1936 1152
WIRE 1040 1328 1040 1280
WIRE 1472 1328 1472 1264
WIRE 1472 1328 1040 1328
WIRE 1504 1328 1472 1328
WIRE 1536 1328 1536 1280
WIRE 1536 1328 1504 1328
WIRE 1936 1328 1936 1280
WIRE 1936 1328 1536 1328
WIRE 1504 1344 1504 1328
FLAG 400 288 0
FLAG 400 544 0
FLAG 400 832 0
FLAG 400 1120 0
FLAG 1504 816 0
FLAG 1504 576 0
FLAG 1504 1120 0
FLAG 1824 384 Our_Filter
FLAG 1824 928 Corrected_Filter
FLAG 1504 1344 0
FLAG 1824 1152 Corrected_Filter
SYMBOL voltage -64 128 R0
WINDOW 123 24 124 Left 2
WINDOW 39 0 0 Left 0
SYMATTR Value2 AC 5m
SYMATTR InstName V1
SYMATTR Value ""
SYMBOL res 128 80 R90
WINDOW 0 0 56 VBottom 2
WINDOW 3 32 56 VTop 2
SYMATTR InstName R1
SYMATTR Value 50
SYMBOL res 1152 240 R180
WINDOW 0 36 76 Left 2
WINDOW 3 36 40 Left 2
SYMATTR InstName R2
SYMATTR Value 50
SYMBOL cap 144 144 R0
SYMATTR InstName C1
SYMATTR Value 470p
SYMBOL cap 960 80 R90
WINDOW 0 0 32 VBottom 2
WINDOW 3 32 32 VTop 2
SYMATTR InstName C2
SYMATTR Value 430p
SYMBOL ind 1056 80 R90
WINDOW 0 5 56 VBottom 2
WINDOW 3 32 56 VTop 2
SYMATTR InstName L1
SYMATTR Value 1.2µ
SYMBOL ind 208 128 R0
SYMATTR InstName L2
SYMATTR Value 1µ
SYMBOL cap 592 144 R0
SYMATTR InstName C3
SYMATTR Value 1.2n
SYMBOL ind 656 128 R0
SYMATTR InstName L3
SYMATTR Value 1µ
SYMBOL cap 400 80 R90
WINDOW 0 0 32 VBottom 2
WINDOW 3 32 32 VTop 2
SYMATTR InstName C4
SYMATTR Value 180p
SYMBOL ind 496 80 R90
WINDOW 0 5 56 VBottom 2
WINDOW 3 32 56 VTop 2
SYMATTR InstName L4
SYMATTR Value 3µ
SYMBOL voltage -64 384 R0
WINDOW 123 24 124 Left 2
WINDOW 39 0 0 Left 0
SYMATTR Value2 AC 5m
SYMATTR InstName V2
SYMATTR Value ""
SYMBOL res 128 336 R90
WINDOW 0 0 56 VBottom 2
WINDOW 3 32 56 VTop 2
SYMATTR InstName R3
SYMATTR Value 50
SYMBOL cap 144 400 R0
SYMATTR InstName C5
SYMATTR Value 620p
SYMBOL ind 208 384 R0
SYMATTR InstName L5
SYMATTR Value 1µ
SYMBOL cap 592 400 R0
SYMATTR InstName C6
SYMATTR Value 620p
SYMBOL ind 656 384 R0
SYMATTR InstName L6
SYMATTR Value 1µ
SYMBOL cap 400 336 R90
WINDOW 0 0 32 VBottom 2
WINDOW 3 32 32 VTop 2
SYMATTR InstName C7
SYMATTR Value 160p
SYMBOL ind 496 336 R90
WINDOW 0 5 56 VBottom 2
WINDOW 3 32 56 VTop 2
SYMATTR InstName L7
SYMATTR Value 3.3µ
SYMBOL res 848 496 R180
WINDOW 0 36 76 Left 2
WINDOW 3 36 40 Left 2
SYMATTR InstName R4
SYMATTR Value 50
SYMBOL voltage -64 672 R0
WINDOW 123 24 124 Left 2
WINDOW 39 0 0 Left 0
SYMATTR Value2 AC 5m
SYMATTR InstName V3
SYMATTR Value ""
SYMBOL res 128 624 R90
WINDOW 0 0 56 VBottom 2
WINDOW 3 32 56 VTop 2
SYMATTR InstName R5
SYMATTR Value 50
SYMBOL cap 352 688 R0
SYMATTR InstName C8
SYMATTR Value 620p
SYMBOL ind 416 672 R0
SYMATTR InstName L8
SYMATTR Value 1µ
SYMBOL res 848 784 R180
WINDOW 0 36 76 Left 2
WINDOW 3 36 40 Left 2
SYMATTR InstName R6
SYMATTR Value 50
SYMBOL cap 256 624 R90
WINDOW 0 0 32 VBottom 2
WINDOW 3 32 32 VTop 2
SYMATTR InstName C9
SYMATTR Value 160p
SYMBOL ind 352 624 R90
WINDOW 0 5 56 VBottom 2
WINDOW 3 32 56 VTop 2
SYMATTR InstName L9
SYMATTR Value 3.3µ
SYMBOL cap 544 624 R90
WINDOW 0 0 32 VBottom 2
WINDOW 3 32 32 VTop 2
SYMATTR InstName C10
SYMATTR Value 160p
SYMBOL ind 640 624 R90
WINDOW 0 5 56 VBottom 2
WINDOW 3 32 56 VTop 2
SYMATTR InstName L10
SYMATTR Value 3.3µ
SYMBOL voltage -64 960 R0
WINDOW 123 24 124 Left 2
WINDOW 39 0 0 Left 0
SYMATTR Value2 AC 5m
SYMATTR InstName V4
SYMATTR Value ""
SYMBOL res 128 912 R90
WINDOW 0 0 56 VBottom 2
WINDOW 3 32 56 VTop 2
SYMATTR InstName R7
SYMATTR Value 50
SYMBOL cap 352 976 R0
SYMATTR InstName C11
SYMATTR Value 750p
SYMBOL ind 416 960 R0
SYMATTR InstName L11
SYMATTR Value 1µ
SYMBOL res 848 1072 R180
WINDOW 0 36 76 Left 2
WINDOW 3 36 40 Left 2
SYMATTR InstName R8
SYMATTR Value 50
SYMBOL cap 256 912 R90
WINDOW 0 0 32 VBottom 2
WINDOW 3 32 32 VTop 2
SYMATTR InstName C12
SYMATTR Value 300p
SYMBOL ind 352 912 R90
WINDOW 0 5 56 VBottom 2
WINDOW 3 32 56 VTop 2
SYMATTR InstName L12
SYMATTR Value 1.6µ
SYMBOL cap 544 912 R90
WINDOW 0 0 32 VBottom 2
WINDOW 3 32 32 VTop 2
SYMATTR InstName C13
SYMATTR Value 300p
SYMBOL ind 640 912 R90
WINDOW 0 5 56 VBottom 2
WINDOW 3 32 56 VTop 2
SYMATTR InstName L13
SYMATTR Value 1.6µ
SYMBOL voltage 1040 656 R0
WINDOW 123 24 124 Left 2
WINDOW 39 0 0 Left 0
WINDOW 3 24 44 Left 2
SYMATTR Value2 AC 0.5m
SYMATTR Value 5V
SYMATTR InstName V7
SYMBOL res 1232 608 R90
WINDOW 0 0 56 VBottom 2
WINDOW 3 32 56 VTop 2
SYMATTR InstName R13
SYMATTR Value 50
SYMBOL cap 1456 672 R0
SYMATTR InstName C15
SYMATTR Value 618pF
SYMBOL ind 1520 656 R0
SYMATTR InstName L14
SYMATTR Value 820nH
SYMBOL res 1952 768 R180
WINDOW 0 36 76 Left 2
WINDOW 3 36 40 Left 2
SYMATTR InstName R14
SYMATTR Value 50
SYMBOL cap 1360 608 R90
WINDOW 0 0 32 VBottom 2
WINDOW 3 32 32 VTop 2
SYMATTR InstName C16
SYMATTR Value 943pF
SYMBOL ind 1456 608 R90
WINDOW 0 5 56 VBottom 2
WINDOW 3 32 56 VTop 2
SYMATTR InstName L15
SYMATTR Value 537nH
SYMBOL cap 1648 608 R90
WINDOW 0 0 32 VBottom 2
WINDOW 3 32 32 VTop 2
SYMATTR InstName C20
SYMATTR Value 144.5pF
SYMBOL ind 1744 608 R90
WINDOW 0 5 56 VBottom 2
WINDOW 3 32 56 VTop 2
SYMATTR InstName L16
SYMATTR Value 3.507µH
SYMBOL voltage 1040 416 R0
WINDOW 123 24 124 Left 2
WINDOW 39 0 0 Left 0
WINDOW 3 24 44 Left 2
SYMATTR Value2 AC 0.5m
SYMATTR Value 5V
SYMATTR InstName V6
SYMBOL res 1232 368 R90
WINDOW 0 0 56 VBottom 2
WINDOW 3 32 56 VTop 2
SYMATTR InstName R11
SYMATTR Value 50
SYMBOL cap 1456 432 R0
SYMATTR InstName C17
SYMATTR Value 220p
SYMBOL ind 1520 416 R0
SYMATTR InstName L17
SYMATTR Value 1.3µ
SYMBOL res 1952 528 R180
WINDOW 0 36 76 Left 2
WINDOW 3 36 40 Left 2
SYMATTR InstName R12
SYMATTR Value 50
SYMBOL cap 1360 368 R90
WINDOW 0 0 32 VBottom 2
WINDOW 3 32 32 VTop 2
SYMATTR InstName C18
SYMATTR Value 1n
SYMBOL ind 1456 368 R90
WINDOW 0 5 56 VBottom 2
WINDOW 3 32 56 VTop 2
SYMATTR InstName L18
SYMATTR Value 200n
SYMBOL cap 1648 368 R90
WINDOW 0 0 32 VBottom 2
WINDOW 3 32 32 VTop 2
SYMATTR InstName C19
SYMATTR Value 220p
SYMBOL ind 1744 368 R90
WINDOW 0 5 56 VBottom 2
WINDOW 3 32 56 VTop 2
SYMATTR InstName L19
SYMATTR Value 1.3µ
SYMBOL voltage 1040 960 R0
WINDOW 123 24 124 Left 2
WINDOW 39 0 0 Left 0
WINDOW 3 24 44 Left 2
SYMATTR Value2 AC 0.5m
SYMATTR Value 5V
SYMATTR InstName V5
SYMBOL res 1232 912 R90
WINDOW 0 0 56 VBottom 2
WINDOW 3 32 56 VTop 2
SYMATTR InstName R9
SYMATTR Value 50
SYMBOL cap 1456 976 R0
SYMATTR InstName C14
SYMATTR Value 620pF
SYMBOL ind 1520 960 R0
SYMATTR InstName L20
SYMATTR Value 820nH
SYMBOL res 1952 1072 R180
WINDOW 0 36 76 Left 2
WINDOW 3 36 40 Left 2
SYMATTR InstName R10
SYMATTR Value 50
SYMBOL cap 1360 912 R90
WINDOW 0 0 32 VBottom 2
WINDOW 3 32 32 VTop 2
SYMATTR InstName C21
SYMATTR Value 910pF
SYMBOL ind 1456 912 R90
WINDOW 0 5 56 VBottom 2
WINDOW 3 32 56 VTop 2
SYMATTR InstName L21
SYMATTR Value 560nH
SYMBOL cap 1648 912 R90
WINDOW 0 0 32 VBottom 2
WINDOW 3 32 32 VTop 2
SYMATTR InstName C22
SYMATTR Value 150pF
SYMBOL ind 1744 912 R90
WINDOW 0 5 56 VBottom 2
WINDOW 3 32 56 VTop 2
SYMATTR InstName L22
SYMATTR Value 3.6µH
SYMBOL voltage 1040 1184 R0
WINDOW 123 24 124 Left 2
WINDOW 39 0 0 Left 0
WINDOW 3 24 44 Left 2
SYMATTR Value2 AC 0.5m
SYMATTR Value 5V
SYMATTR InstName V8
SYMBOL res 1232 1136 R90
WINDOW 0 0 56 VBottom 2
WINDOW 3 32 56 VTop 2
SYMATTR InstName R15
SYMATTR Value 50
SYMBOL cap 1456 1200 R0
SYMATTR InstName C23
SYMATTR Value 620pF
SYMBOL ind 1520 1184 R0
SYMATTR InstName L23
SYMATTR Value 867nH
SYMBOL res 1952 1296 R180
WINDOW 0 36 76 Left 2
WINDOW 3 36 40 Left 2
SYMATTR InstName R16
SYMATTR Value 50
SYMBOL cap 1360 1136 R90
WINDOW 0 0 32 VBottom 2
WINDOW 3 32 32 VTop 2
SYMATTR InstName C24
SYMATTR Value 910pF
SYMBOL ind 1456 1136 R90
WINDOW 0 5 56 VBottom 2
WINDOW 3 32 56 VTop 2
SYMATTR InstName L24
SYMATTR Value 576nH
SYMBOL cap 1648 1136 R90
WINDOW 0 0 32 VBottom 2
WINDOW 3 32 32 VTop 2
SYMATTR InstName C25
SYMATTR Value 150pF
SYMBOL ind 1744 1136 R90
WINDOW 0 5 56 VBottom 2
WINDOW 3 32 56 VTop 2
SYMATTR InstName L25
SYMATTR Value 3.6µH
TEXT 248 -40 Left 2 !.ac dec 100 1k 100Meg
TEXT 2040 448 Left 2 ;OURS
TEXT 2032 704 Left 2 ;EXACT
TEXT 2008 976 Left 2 ;5% tolerance\nMin Cap: 1pF\nMin Ind: 1nH
