Version 4
SHEET 1 2720 1252
WIRE -448 -944 -608 -944
WIRE -320 -944 -384 -944
WIRE -176 -944 -240 -944
WIRE -80 -944 -176 -944
WIRE 0 -944 -80 -944
WIRE 128 -944 64 -944
WIRE 320 -944 208 -944
WIRE -80 -928 -80 -944
WIRE -176 -912 -176 -944
WIRE -176 -816 -176 -848
WIRE -128 -816 -176 -816
WIRE -80 -816 -80 -848
WIRE -80 -816 -128 -816
WIRE -128 -784 -128 -816
WIRE 1184 -736 1072 -736
WIRE 1392 -736 1264 -736
WIRE 624 -672 592 -672
WIRE 736 -672 704 -672
WIRE 1024 -672 736 -672
WIRE 736 -624 736 -672
WIRE 1072 -624 1072 -736
WIRE 1104 -624 1072 -624
WIRE 1392 -624 1392 -736
WIRE 1392 -624 1360 -624
WIRE 1024 -560 1024 -672
WIRE 1104 -560 1024 -560
WIRE 1104 -496 1024 -496
WIRE 1472 -496 1360 -496
WIRE 1600 -496 1536 -496
WIRE 1808 -496 1680 -496
WIRE -160 -480 -240 -480
WIRE 128 -480 -80 -480
WIRE -432 -464 -480 -464
WIRE -368 -464 -368 -496
WIRE 1808 -448 1808 -496
WIRE -1440 -432 -1520 -432
WIRE -1248 -432 -1360 -432
WIRE -1088 -432 -1168 -432
WIRE -480 -432 -480 -464
WIRE -368 -432 -368 -464
WIRE 16 -432 -96 -432
WIRE -240 -368 -240 -480
WIRE -160 -368 -240 -368
WIRE 128 -368 -80 -368
WIRE 1808 -336 1808 -368
WIRE -368 -320 -368 -352
WIRE -368 -320 -528 -320
WIRE -240 -320 -240 -368
WIRE -240 -320 -368 -320
WIRE 16 -320 -96 -320
WIRE 608 -304 576 -304
WIRE 736 -304 688 -304
WIRE 1024 -304 1024 -496
WIRE 1024 -304 736 -304
WIRE -368 -288 -368 -320
WIRE 736 -272 736 -304
WIRE -240 -256 -240 -320
WIRE -160 -256 -240 -256
WIRE 128 -256 -80 -256
WIRE -1296 -240 -1360 -240
WIRE -1152 -240 -1216 -240
WIRE 16 -208 -96 -208
WIRE 1184 -192 1072 -192
WIRE 1392 -192 1264 -192
WIRE -240 -144 -240 -256
WIRE -160 -144 -240 -144
WIRE 128 -144 -80 -144
WIRE 608 -128 576 -128
WIRE 736 -128 688 -128
WIRE 1008 -128 736 -128
WIRE 16 -96 -96 -96
WIRE 736 -80 736 -128
WIRE 1072 -80 1072 -192
WIRE 1104 -80 1072 -80
WIRE 1392 -80 1392 -192
WIRE 1392 -80 1360 -80
WIRE -1296 -64 -1360 -64
WIRE -1152 -64 -1152 -240
WIRE -1152 -64 -1216 -64
WIRE -1088 -64 -1152 -64
WIRE 1008 -16 1008 -128
WIRE 1104 -16 1008 -16
WIRE 1104 48 1008 48
WIRE 1472 48 1360 48
WIRE 1472 64 1472 48
WIRE 1504 64 1472 64
WIRE 1632 64 1568 64
WIRE 1824 64 1712 64
WIRE -1296 112 -1360 112
WIRE -1152 112 -1152 -64
WIRE -1152 112 -1216 112
WIRE 1824 112 1824 64
WIRE 1824 224 1824 192
WIRE 608 240 576 240
WIRE 736 240 688 240
WIRE 1008 240 1008 48
WIRE 1008 240 736 240
WIRE 736 272 736 240
WIRE -1440 336 -1568 336
WIRE -1088 336 -1360 336
WIRE -1568 368 -1568 336
WIRE 48 528 48 464
WIRE -1472 544 -1584 544
WIRE -1584 576 -1584 544
WIRE -304 640 -304 624
WIRE -304 640 -384 640
WIRE 48 640 48 608
WIRE 48 640 -48 640
WIRE 144 640 112 640
WIRE -304 656 -304 640
WIRE 144 656 144 640
WIRE -384 672 -384 640
WIRE 48 672 48 640
WIRE -1472 736 -1584 736
WIRE -1584 768 -1584 736
WIRE -1472 928 -1584 928
WIRE -1584 960 -1584 928
WIRE -1472 1120 -1584 1120
WIRE -1584 1152 -1584 1120
FLAG -144 -432 0
FLAG -144 -320 0
FLAG -144 -208 0
FLAG -144 -96 0
FLAG -1568 368 0
FLAG -304 544 5V
FLAG 736 -208 0
FLAG 736 -560 0
FLAG 1808 -336 0
FLAG 1824 224 0
FLAG -384 672 0
FLAG -304 736 -5V
FLAG 16 -432 V_0_deg
FLAG 16 -320 V_90_deg
FLAG 16 -208 V_180_deg
FLAG 16 -96 V_270_deg
FLAG -1584 656 0
FLAG -1472 544 V_0_deg
FLAG -1584 848 0
FLAG -1472 736 V_90_deg
FLAG -1584 1040 0
FLAG -1472 928 V_180_deg
FLAG -1584 1232 0
FLAG -1472 1120 V_270_deg
FLAG 128 -480 00
FLAG 128 -256 11
FLAG 592 -672 00
FLAG 576 -304 11
FLAG -1520 -432 0
FLAG -128 -784 0
FLAG 320 -944 V_filtered
FLAG -1088 336 V_unfiltered
FLAG -528 -320 V_filtered
FLAG -368 -496 5V
FLAG -368 -208 0
FLAG -368 -320 bias_pt
FLAG -480 -432 0
FLAG 736 336 0
FLAG 736 -16 0
FLAG 576 -128 01
FLAG 576 240 10
FLAG 128 -368 01
FLAG 128 -144 10
FLAG 48 464 5V
FLAG 48 752 0
FLAG 144 656 0
FLAG 1360 -560 5V
FLAG 1104 -432 0
FLAG 1360 -432 AGND
FLAG 1360 -16 5V
FLAG 1104 112 0
FLAG 1360 112 AGND
FLAG -1088 -432 V_ideal
FLAG -1440 -240 0
FLAG -1440 -64 0
FLAG -1440 112 0
FLAG -1088 -64 V_messy
FLAG -608 -944 V_messy
FLAG -48 640 AGND
SYMBOL sw -176 -480 R270
SYMATTR InstName S7
SYMATTR Value MYSW
SYMBOL sw -176 -368 R270
SYMATTR InstName S2
SYMATTR Value MYSW
SYMBOL sw -176 -256 R270
SYMATTR InstName S4
SYMATTR Value MYSW
SYMBOL sw -176 -144 R270
SYMATTR InstName S6
SYMATTR Value MYSW
SYMBOL voltage -1344 336 R90
WINDOW 0 -32 56 VBottom 2
WINDOW 3 32 56 VTop 2
WINDOW 123 0 0 Left 0
WINDOW 39 90 56 VBottom 2
SYMATTR InstName V3
SYMATTR Value SINE(0 5m {RF_Freq})
SYMATTR SpiceLine Rser=50
SYMBOL voltage -304 528 R0
WINDOW 123 0 0 Left 0
WINDOW 39 0 0 Left 0
SYMATTR InstName V4
SYMATTR Value 5
SYMBOL cap 752 -560 R180
WINDOW 0 24 56 Left 2
WINDOW 3 24 8 Left 2
SYMATTR InstName C5
SYMATTR Value {C_Sample}
SYMBOL cap 752 -208 R180
WINDOW 0 24 56 Left 2
WINDOW 3 24 8 Left 2
SYMATTR InstName C6
SYMATTR Value {C_Sample}
SYMBOL cap 1536 -512 R90
WINDOW 0 0 32 VBottom 2
WINDOW 3 32 32 VTop 2
SYMATTR InstName C4
SYMATTR Value 0.1µ
SYMBOL cap 1568 48 R90
WINDOW 0 0 32 VBottom 2
WINDOW 3 32 32 VTop 2
SYMATTR InstName C8
SYMATTR Value 0.1µ
SYMBOL res 1696 -512 R90
WINDOW 0 0 56 VBottom 2
WINDOW 3 32 56 VTop 2
SYMATTR InstName R4
SYMATTR Value 100
SYMBOL res 1728 48 R90
WINDOW 0 0 56 VBottom 2
WINDOW 3 32 56 VTop 2
SYMATTR InstName R6
SYMATTR Value 100
SYMBOL res 1824 -352 R180
WINDOW 0 36 76 Left 2
WINDOW 3 36 40 Left 2
SYMATTR InstName R9
SYMATTR Value 55k
SYMBOL res 1840 208 R180
WINDOW 0 36 76 Left 2
WINDOW 3 36 40 Left 2
SYMATTR InstName R10
SYMATTR Value 55k
SYMBOL voltage -304 640 R0
WINDOW 123 0 0 Left 0
WINDOW 39 0 0 Left 0
SYMATTR InstName V5
SYMATTR Value 5
SYMBOL voltage -1584 560 R0
WINDOW 123 0 0 Left 0
WINDOW 39 0 0 Left 0
SYMATTR InstName V1
SYMATTR Value PULSE(0 1 0 0.001p 0.001p {SW_time} {4*SW_time})
SYMBOL voltage -1584 752 R0
WINDOW 123 0 0 Left 0
WINDOW 39 0 0 Left 0
SYMATTR InstName V2
SYMATTR Value PULSE(0 1 {SW_time} 0.001p 0.001p {SW_time} {4*SW_time})
SYMBOL voltage -1584 944 R0
WINDOW 123 0 0 Left 0
WINDOW 39 0 0 Left 0
SYMATTR InstName V6
SYMATTR Value PULSE(0 1 {2*SW_time} 0.001p 0.001p {SW_time} {4*SW_time})
SYMBOL voltage -1584 1136 R0
WINDOW 123 0 0 Left 0
WINDOW 39 0 0 Left 0
SYMATTR InstName V7
SYMATTR Value PULSE(0 1 {3*SW_time} 0.001p 0.001p {SW_time} {4*SW_time})
SYMBOL voltage -1344 -432 R90
WINDOW 0 -69 58 VTop 2
WINDOW 3 43 49 VTop 2
WINDOW 123 0 0 Left 0
WINDOW 39 60 56 VTop 2
SYMATTR InstName V8
SYMATTR Value SINE(0 5u {RF_freq})
SYMBOL cap -384 -960 R90
WINDOW 0 0 32 VBottom 2
WINDOW 3 32 32 VTop 2
SYMATTR InstName C9
SYMATTR Value 910µ
SYMBOL ind -336 -928 R270
WINDOW 0 32 56 VTop 2
WINDOW 3 0 56 VBottom 2
SYMATTR InstName L1
SYMATTR Value 1µ
SYMBOL cap -192 -912 R0
SYMATTR InstName C10
SYMATTR Value 620p
SYMBOL ind -96 -944 R0
SYMATTR InstName L2
SYMATTR Value 1µ
SYMBOL cap 64 -960 R90
WINDOW 0 0 32 VBottom 2
WINDOW 3 32 26 VTop 2
SYMATTR InstName C11
SYMATTR Value 150p
SYMBOL ind 112 -928 R270
WINDOW 0 32 56 VTop 2
WINDOW 3 0 56 VBottom 2
SYMATTR InstName L3
SYMATTR Value 3.6µ
SYMBOL res -1152 -448 R90
WINDOW 0 0 56 VBottom 2
WINDOW 3 32 56 VTop 2
SYMATTR InstName R13
SYMATTR Value 50
SYMBOL res -384 -448 R0
SYMATTR InstName R14
SYMATTR Value 10k
SYMBOL res -384 -304 R0
SYMATTR InstName R15
SYMATTR Value 10k
SYMBOL cap -368 -480 R90
WINDOW 0 0 32 VBottom 2
WINDOW 3 32 32 VTop 2
SYMATTR InstName C12
SYMATTR Value 0.1µ
SYMBOL cap 752 -16 R180
WINDOW 0 24 56 Left 2
WINDOW 3 24 8 Left 2
SYMATTR InstName C1
SYMATTR Value {C_Sample}
SYMBOL cap 752 336 R180
WINDOW 0 24 56 Left 2
WINDOW 3 24 8 Left 2
SYMATTR InstName C7
SYMATTR Value {C_Sample}
SYMBOL res 720 -688 R90
WINDOW 0 0 56 VBottom 2
WINDOW 3 32 56 VTop 2
SYMATTR InstName R22
SYMATTR Value 50
SYMBOL res 704 -320 R90
WINDOW 0 0 56 VBottom 2
WINDOW 3 32 56 VTop 2
SYMATTR InstName R23
SYMATTR Value 50
SYMBOL res 704 -144 R90
WINDOW 0 0 56 VBottom 2
WINDOW 3 32 56 VTop 2
SYMATTR InstName R24
SYMATTR Value 50
SYMBOL res 704 224 R90
WINDOW 0 0 56 VBottom 2
WINDOW 3 32 56 VTop 2
SYMATTR InstName R25
SYMATTR Value 50
SYMBOL res 32 512 R0
SYMATTR InstName R26
SYMATTR Value 10k
SYMBOL res 32 656 R0
SYMATTR InstName R27
SYMATTR Value 10k
SYMBOL cap 48 656 R270
WINDOW 0 32 32 VTop 2
WINDOW 3 0 32 VBottom 2
SYMATTR InstName C15
SYMATTR Value 10µ
SYMBOL Opamps\\LT1167 1232 -528 R0
SYMATTR InstName U8
SYMBOL res 1280 -752 R90
WINDOW 0 0 56 VBottom 2
WINDOW 3 32 56 VTop 2
SYMATTR InstName R2
SYMATTR Value 50
SYMBOL Opamps\\LT1167 1232 16 R0
SYMATTR InstName U1
SYMBOL res 1280 -208 R90
WINDOW 0 0 56 VBottom 2
WINDOW 3 32 56 VTop 2
SYMATTR InstName R1
SYMATTR Value 50
SYMBOL voltage -1344 -64 R90
WINDOW 0 -26 2 VTop 2
WINDOW 3 42 56 VTop 2
WINDOW 123 0 0 Left 0
WINDOW 39 60 56 VTop 2
SYMATTR InstName V9
SYMATTR Value SINE(0 5u {RF_freq})
SYMBOL voltage -1344 112 R90
WINDOW 0 -26 -2 VTop 2
WINDOW 3 45 46 VTop 2
WINDOW 123 0 0 Left 0
WINDOW 39 60 56 VTop 2
SYMATTR InstName V10
SYMATTR Value SINE(0 3u {0.2*RF_freq})
SYMBOL voltage -1344 -240 R90
WINDOW 0 -25 -4 VTop 2
WINDOW 3 42 62 VTop 2
WINDOW 123 0 0 Left 0
WINDOW 39 60 56 VTop 2
SYMATTR InstName V11
SYMATTR Value SINE(0 3u {2*RF_freq})
SYMBOL res -1200 -256 R90
WINDOW 0 0 56 VBottom 2
WINDOW 3 32 56 VTop 2
SYMATTR InstName R3
SYMATTR Value 50
SYMBOL res -1200 -80 R90
WINDOW 0 0 56 VBottom 2
WINDOW 3 32 56 VTop 2
SYMATTR InstName R5
SYMATTR Value 50
SYMBOL res -1200 96 R90
WINDOW 0 0 56 VBottom 2
WINDOW 3 32 56 VTop 2
SYMATTR InstName R7
SYMATTR Value 50
TEXT -1232 -1144 Left 2 !.model MYSW SW(Vt=0.9 Vh=0 Ron=1 Roff=100G)
TEXT -1680 -1112 Left 2 !.tran 0 1m 0m 0.5u
TEXT -1680 -1024 Left 2 !.param RF_freq=10Meg
TEXT -1680 -1144 Left 2 !;op
TEXT -1680 -992 Left 2 !.param C_Sample=100p
TEXT -1712 -1288 Left 6 ;Instrumentation Amp INA821 Sim
TEXT -1680 -912 Left 2 !.param LO_freq={RF_freq - 10.7k}
TEXT -1680 -880 Left 2 !.param LO_period={1/LO_freq}
TEXT -1680 -848 Left 2 !.param LOB_delay={LOA_delay*2}
TEXT -1680 -816 Left 2 !.param LOA_delay={LO_on/2}
TEXT -1680 -784 Left 2 !.param LO_on={LO_period/2}
TEXT -1680 -752 Left 2 !.param SW_time={LO_period/4}
TEXT -1712 -1056 Left 2 ;Primary Parameters
TEXT -1712 -944 Left 2 ;MUX Model Parameters
TEXT -1712 -1176 Left 2 ;Simulation Commands
TEXT -1616 480 Left 5 ;MUX Model Signals
TEXT -1576 -656 Left 5 ;Signal Source Choices
TEXT -328 -1144 Left 5 ;Bandpass Filter
TEXT -248 -664 Left 5 ;MUX Model
TEXT -1272 -1176 Left 2 ;Custom Models
TEXT -432 360 Left 5 ;Supply + Analog Ground
TEXT 928 -864 Left 5 ;Instrumentation Amps
TEXT 1856 -432 Left 2 ;Input Impedence of\nThe Soundcard
TEXT 1872 128 Left 2 ;Input Impedence of\nThe Soundcard
TEXT -320 -1088 Left 3 ;(5 - 10 MHz Passband)
TEXT -1568 -600 Left 3 ;Various Choices for Testing
