Version 4
SHEET 1 2720 1156
WIRE -1376 -1456 -1440 -1456
WIRE -1168 -1456 -1296 -1456
WIRE -1504 -976 -1584 -976
WIRE -1344 -976 -1424 -976
WIRE -1200 -976 -1264 -976
WIRE -624 -976 -784 -976
WIRE -496 -976 -560 -976
WIRE -352 -976 -416 -976
WIRE -256 -976 -352 -976
WIRE -176 -976 -256 -976
WIRE -48 -976 -112 -976
WIRE 144 -976 32 -976
WIRE -256 -960 -256 -976
WIRE -352 -944 -352 -976
WIRE -352 -848 -352 -880
WIRE -304 -848 -352 -848
WIRE -256 -848 -256 -880
WIRE -256 -848 -304 -848
WIRE -304 -816 -304 -848
WIRE 1152 -736 1040 -736
WIRE 1360 -736 1232 -736
WIRE 592 -672 560 -672
WIRE 704 -672 672 -672
WIRE 992 -672 704 -672
WIRE -416 -656 -416 -720
WIRE 704 -624 704 -672
WIRE 1040 -624 1040 -736
WIRE 1072 -624 1040 -624
WIRE 1360 -624 1360 -736
WIRE 1360 -624 1328 -624
WIRE 0 -608 -64 -608
WIRE 176 -608 80 -608
WIRE -1056 -592 -1056 -608
WIRE -1056 -592 -1136 -592
WIRE -1056 -576 -1056 -592
WIRE -64 -576 -64 -608
WIRE -1136 -560 -1136 -592
WIRE 992 -560 992 -672
WIRE 1072 -560 992 -560
WIRE -416 -544 -416 -576
WIRE -416 -544 -512 -544
WIRE -320 -544 -352 -544
WIRE -320 -528 -320 -544
WIRE -416 -512 -416 -544
WIRE 1072 -496 992 -496
WIRE 1440 -496 1328 -496
WIRE 1568 -496 1504 -496
WIRE 1776 -496 1648 -496
WIRE 1776 -448 1776 -496
WIRE 1776 -336 1776 -368
WIRE 576 -304 544 -304
WIRE 704 -304 656 -304
WIRE 992 -304 992 -496
WIRE 992 -304 704 -304
WIRE 704 -272 704 -304
WIRE 1152 -192 1040 -192
WIRE 1360 -192 1232 -192
WIRE 576 -128 544 -128
WIRE 704 -128 656 -128
WIRE 976 -128 704 -128
WIRE 704 -80 704 -128
WIRE 1040 -80 1040 -192
WIRE 1072 -80 1040 -80
WIRE 1360 -80 1360 -192
WIRE 1360 -80 1328 -80
WIRE 976 -16 976 -128
WIRE 1072 -16 976 -16
WIRE 1072 48 976 48
WIRE 1440 48 1328 48
WIRE 1440 64 1440 48
WIRE 1472 64 1440 64
WIRE 1600 64 1536 64
WIRE 1792 64 1680 64
WIRE 1792 112 1792 64
WIRE 1792 224 1792 192
WIRE 576 240 544 240
WIRE 704 240 656 240
WIRE 976 240 976 48
WIRE 976 240 704 240
WIRE 704 272 704 240
FLAG -64 -576 0
FLAG -1056 -688 5V
FLAG 704 -208 0
FLAG 704 -560 0
FLAG 1776 -336 0
FLAG 1792 224 0
FLAG -1136 -560 0
FLAG -1056 -496 -5V
FLAG 560 -672 V_unfiltered
FLAG -1584 -976 0
FLAG -304 -816 0
FLAG 144 -976 V_filtered
FLAG 176 -608 V_unfiltered
FLAG 704 336 0
FLAG 704 -16 0
FLAG 544 -128 01
FLAG 544 240 10
FLAG -416 -720 5V
FLAG -416 -432 0
FLAG -320 -528 0
FLAG 1328 -560 5V
FLAG 1072 -432 0
FLAG 1328 -432 AGND
FLAG 1328 -16 5V
FLAG 1072 112 0
FLAG 1328 112 AGND
FLAG -1200 -976 V_ideal
FLAG -1520 -1456 0
FLAG -1168 -1456 V_messy
FLAG -784 -976 V_messy
FLAG -512 -544 AGND
FLAG 1776 -496 vout
FLAG 544 -304 V_unfiltered
SYMBOL voltage 96 -608 R90
WINDOW 0 -32 56 VBottom 2
WINDOW 3 32 56 VTop 2
WINDOW 123 0 0 Left 0
WINDOW 39 90 56 VBottom 2
SYMATTR InstName V3
SYMATTR Value SINE(0 5m {RF_Freq})
SYMATTR SpiceLine Rser=50
SYMBOL voltage -1056 -704 R0
WINDOW 123 0 0 Left 0
WINDOW 39 0 0 Left 0
SYMATTR InstName V4
SYMATTR Value 5
SYMBOL cap 720 -560 R180
WINDOW 0 24 56 Left 2
WINDOW 3 24 8 Left 2
SYMATTR InstName C5
SYMATTR Value {C_Sample}
SYMBOL cap 720 -208 R180
WINDOW 0 24 56 Left 2
WINDOW 3 24 8 Left 2
SYMATTR InstName C6
SYMATTR Value {C_Sample}
SYMBOL cap 1504 -512 R90
WINDOW 0 0 32 VBottom 2
WINDOW 3 32 32 VTop 2
SYMATTR InstName C4
SYMATTR Value 0.1µ
SYMBOL cap 1536 48 R90
WINDOW 0 0 32 VBottom 2
WINDOW 3 32 32 VTop 2
SYMATTR InstName C8
SYMATTR Value 0.1µ
SYMBOL res 1664 -512 R90
WINDOW 0 0 56 VBottom 2
WINDOW 3 32 56 VTop 2
SYMATTR InstName R4
SYMATTR Value 100
SYMBOL res 1696 48 R90
WINDOW 0 0 56 VBottom 2
WINDOW 3 32 56 VTop 2
SYMATTR InstName R6
SYMATTR Value 100
SYMBOL res 1792 -352 R180
WINDOW 0 36 76 Left 2
WINDOW 3 36 40 Left 2
SYMATTR InstName R9
SYMATTR Value 55k
SYMBOL res 1808 208 R180
WINDOW 0 36 76 Left 2
WINDOW 3 36 40 Left 2
SYMATTR InstName R10
SYMATTR Value 55k
SYMBOL voltage -1056 -592 R0
WINDOW 123 0 0 Left 0
WINDOW 39 0 0 Left 0
SYMATTR InstName V5
SYMATTR Value 5
SYMBOL voltage -1408 -976 R90
WINDOW 0 53 41 Bottom 2
WINDOW 3 217 84 Bottom 2
WINDOW 123 0 0 Left 0
WINDOW 39 60 56 VTop 2
SYMATTR InstName V8
SYMATTR Value SINE(0 5u {RF_freq})
SYMBOL cap -560 -992 R90
WINDOW 0 0 32 VBottom 2
WINDOW 3 32 32 VTop 2
SYMATTR InstName C9
SYMATTR Value 910µ
SYMBOL ind -512 -960 R270
WINDOW 0 32 56 VTop 2
WINDOW 3 0 56 VBottom 2
SYMATTR InstName L1
SYMATTR Value 1µ
SYMBOL cap -368 -944 R0
SYMATTR InstName C10
SYMATTR Value 620p
SYMBOL ind -272 -976 R0
SYMATTR InstName L2
SYMATTR Value 1µ
SYMBOL cap -112 -992 R90
WINDOW 0 0 32 VBottom 2
WINDOW 3 32 26 VTop 2
SYMATTR InstName C11
SYMATTR Value 150p
SYMBOL ind -64 -960 R270
WINDOW 0 32 56 VTop 2
WINDOW 3 0 56 VBottom 2
SYMATTR InstName L3
SYMATTR Value 3.6µ
SYMBOL res -1248 -992 R90
WINDOW 0 0 56 VBottom 2
WINDOW 3 32 56 VTop 2
SYMATTR InstName R13
SYMATTR Value 50
SYMBOL cap 720 -16 R180
WINDOW 0 24 56 Left 2
WINDOW 3 24 8 Left 2
SYMATTR InstName C1
SYMATTR Value {C_Sample}
SYMBOL cap 720 336 R180
WINDOW 0 24 56 Left 2
WINDOW 3 24 8 Left 2
SYMATTR InstName C7
SYMATTR Value {C_Sample}
SYMBOL res 688 -688 R90
WINDOW 0 0 56 VBottom 2
WINDOW 3 32 56 VTop 2
SYMATTR InstName R22
SYMATTR Value 50
SYMBOL res 672 -320 R90
WINDOW 0 0 56 VBottom 2
WINDOW 3 32 56 VTop 2
SYMATTR InstName R23
SYMATTR Value 50
SYMBOL res 672 -144 R90
WINDOW 0 0 56 VBottom 2
WINDOW 3 32 56 VTop 2
SYMATTR InstName R24
SYMATTR Value 50
SYMBOL res 672 224 R90
WINDOW 0 0 56 VBottom 2
WINDOW 3 32 56 VTop 2
SYMATTR InstName R25
SYMATTR Value 50
SYMBOL res -432 -672 R0
SYMATTR InstName R26
SYMATTR Value 10k
SYMBOL res -432 -528 R0
SYMATTR InstName R27
SYMATTR Value 10k
SYMBOL cap -416 -528 R270
WINDOW 0 32 32 VTop 2
WINDOW 3 0 32 VBottom 2
SYMATTR InstName C15
SYMATTR Value 10µ
SYMBOL Opamps\\LT1167 1200 -528 R0
SYMATTR InstName U8
SYMBOL res 1248 -752 R90
WINDOW 0 0 56 VBottom 2
WINDOW 3 32 56 VTop 2
SYMATTR InstName R2
SYMATTR Value 50
SYMBOL Opamps\\LT1167 1200 16 R0
SYMATTR InstName U1
SYMBOL res 1248 -208 R90
WINDOW 0 0 56 VBottom 2
WINDOW 3 32 56 VTop 2
SYMATTR InstName R1
SYMATTR Value 50
SYMBOL voltage -1424 -1456 R90
WINDOW 0 53 41 Bottom 2
WINDOW 3 16 219 VTop 2
WINDOW 123 0 0 Left 0
WINDOW 39 60 56 VTop 2
SYMATTR InstName V9
SYMATTR Value SINE(0 5u {RF_freq})
SYMBOL res -1280 -1472 R90
WINDOW 0 0 56 VBottom 2
WINDOW 3 32 56 VTop 2
SYMATTR InstName R5
SYMATTR Value 50
TEXT -528 32 Left 2 !.model MYSW SW(Vt=0.9 Vh=0 Ron=1 Roff=100G)
TEXT -304 -120 Left 2 !;tran 0 1m 0m 0.5u
TEXT -744 376 Left 2 !.param RF_freq=10Meg LO_freq={RF_freq - 10.7k} LO_period={1/LO_freq} LOB_delay={LOA_delay*2} LOA_delay={LO_on/2} LO_on={LO_period/2} SW_time={LO_period/4}
TEXT -424 -112 Left 2 !;op
TEXT 480 -784 Left 2 !.param C_Sample=100p
TEXT 32 -456 Left 2 !.noise V(vout) V3 dec 100 10 100Meg
